<?xml version="1.0" encoding="UTF-8"?>

<!-- generated on 2023-03-17 09:10:15.945818 by osmWebWizard.py v1_15_0+0002-e6790248698
<configuration>
    <allow-fringe.min-length value="1000.0"/>
    <end value="3600"/>
    <fringe-factor value="5"/>
    <fringe-start-attributes value="departSpeed=&quot;max&quot;"/>
    <insertion-density value="12.0"/>
    <lanes value="True"/>
    <min-distance.fringe value="10.0"/>
    <min-distance value="300.0"/>
    <net-file value="E:\sumo-1.15.0\tools\2023-03-17-09-10-00\osm.net.xml.gz"/>
    <remove-loops value="True"/>
    <route-file value="E:\sumo-1.15.0\tools\2023-03-17-09-10-00\osm.passenger.rou.xml"/>
    <trip-attributes value="departLane=&quot;best&quot;"/>
    <output-trip-file value="E:\sumo-1.15.0\tools\2023-03-17-09-10-00\osm.passenger.trips.xml"/>
    <prefix value="veh"/>
    <validate value="True"/>
    <vehicle-class value="passenger"/>
</configuration>
-->

<!-- generated on 2023-03-17 09:10:15 by Eclipse SUMO duarouter Version 1.15.0
<configuration xmlns:xsi="http://www.w3.org/2001/XMLSchema-instance" xsi:noNamespaceSchemaLocation="http://sumo.dlr.de/xsd/duarouterConfiguration.xsd">

    <input>
        <net-file value="E:\sumo-1.15.0\tools\2023-03-17-09-10-00\osm.net.xml.gz"/>
        <route-files value="E:\sumo-1.15.0\tools\2023-03-17-09-10-00\osm.passenger.trips.xml"/>
    </input>

    <output>
        <output-file value="E:\sumo-1.15.0\tools\2023-03-17-09-10-00\osm.passenger.trips.xml.tmp"/>
        <alternatives-output value="NUL"/>
        <write-trips value="true"/>
    </output>

    <processing>
        <remove-loops value="true"/>
    </processing>

    <time>
        <begin value="0"/>
        <end value="3600"/>
    </time>

    <report>
        <no-warnings value="true"/>
        <ignore-errors value="true"/>
        <no-step-log value="true"/>
    </report>

</configuration>
-->

<routes xmlns:xsi="http://www.w3.org/2001/XMLSchema-instance" xsi:noNamespaceSchemaLocation="http://sumo.dlr.de/xsd/routes_file.xsd">
    <vType id="veh_passenger" vClass="passenger"/>
    <trip id="veh0" type="veh_passenger" depart="0.00" departLane="best" departSpeed="max" from="24474359#0" to="-1107965454"/>
    <trip id="veh1" type="veh_passenger" depart="1.04" departLane="best" from="-68742090#3" to="-39687339"/>
    <trip id="veh3" type="veh_passenger" depart="3.12" departLane="best" from="68742075#0" to="-1107978673"/>
    <trip id="veh4" type="veh_passenger" depart="4.16" departLane="best" departSpeed="max" from="1107978673" to="-1107965460#7"/>
    <trip id="veh5" type="veh_passenger" depart="5.20" departLane="best" departSpeed="max" from="-39687376#1" to="136797050#1"/>
    <trip id="veh6" type="veh_passenger" depart="6.24" departLane="best" from="-1107965459#0" to="-39410238#1"/>
    <trip id="veh7" type="veh_passenger" depart="7.28" departLane="best" from="24474366#5" to="176637362#0"/>
    <trip id="veh8" type="veh_passenger" depart="8.32" departLane="best" from="-39687496#0" to="238492235#1"/>
    <trip id="veh9" type="veh_passenger" depart="9.36" departLane="best" from="39150363#2" to="-1101731479#1"/>
    <trip id="veh10" type="veh_passenger" depart="10.40" departLane="best" from="43925759#6" to="39609979#1"/>
    <trip id="veh11" type="veh_passenger" depart="11.44" departLane="best" from="1101731478#1" to="-226472187#0"/>
    <trip id="veh12" type="veh_passenger" depart="12.48" departLane="best" from="74424241#0" to="1107954463#3"/>
    <trip id="veh13" type="veh_passenger" depart="13.52" departLane="best" from="-49202625#3" to="24474354#0-AddedOffRampEdge"/>
    <trip id="veh14" type="veh_passenger" depart="14.56" departLane="best" from="43925759#7" to="39687376#0"/>
    <trip id="veh15" type="veh_passenger" depart="15.60" departLane="best" from="136797050#2" to="769608436"/>
    <trip id="veh16" type="veh_passenger" depart="16.65" departLane="best" from="-1107968591#0" to="-1116719085"/>
    <trip id="veh17" type="veh_passenger" depart="17.69" departLane="best" from="74424229" to="24474372#1"/>
    <trip id="veh19" type="veh_passenger" depart="19.77" departLane="best" from="39150988#0-AddedOffRampEdge" to="-1107968592#0"/>
    <trip id="veh20" type="veh_passenger" depart="20.81" departLane="best" from="-436404912#0" to="-987438278"/>
    <trip id="veh21" type="veh_passenger" depart="21.85" departLane="best" from="-1107978666#0" to="-47212854#0"/>
    <trip id="veh22" type="veh_passenger" depart="22.89" departLane="best" from="-1116719086" to="729783868#2"/>
    <trip id="veh24" type="veh_passenger" depart="24.97" departLane="best" from="1107965463#0" to="39676138#0"/>
    <trip id="veh25" type="veh_passenger" depart="26.01" departLane="best" from="553665495#1" to="74424206#2-AddedOnRampEdge"/>
    <trip id="veh26" type="veh_passenger" depart="27.05" departLane="best" from="24474366#2" to="24474354#2"/>
    <trip id="veh27" type="veh_passenger" depart="28.09" departLane="best" from="-27396066#4" to="39687341#3"/>
    <trip id="veh28" type="veh_passenger" depart="29.13" departLane="best" from="-24474427#5" to="-1107968595#3"/>
    <trip id="veh29" type="veh_passenger" depart="30.17" departLane="best" departSpeed="max" from="9205136#0" to="27396073#1"/>
    <trip id="veh31" type="veh_passenger" depart="32.25" departLane="best" from="47220134#3" to="43925759#11"/>
    <trip id="veh32" type="veh_passenger" depart="33.29" departLane="best" departSpeed="max" from="-436404912#1" to="1107965461#2"/>
    <trip id="veh33" type="veh_passenger" depart="34.33" departLane="best" from="1022305934" to="-68742075#1"/>
    <trip id="veh34" type="veh_passenger" depart="35.37" departLane="best" from="-39687227#2" to="74424223"/>
    <trip id="veh35" type="veh_passenger" depart="36.41" departLane="best" from="50773684#1" to="1076772165#0"/>
    <trip id="veh37" type="veh_passenger" depart="38.49" departLane="best" departSpeed="max" from="72352243#0" to="136017315"/>
    <trip id="veh39" type="veh_passenger" depart="40.57" departLane="best" from="176686005" to="-553665495#0"/>
    <trip id="veh40" type="veh_passenger" depart="41.61" departLane="best" from="177046320" to="71365287#1"/>
    <trip id="veh41" type="veh_passenger" depart="42.65" departLane="best" departSpeed="max" from="1107968611" to="-39687304#0"/>
    <trip id="veh42" type="veh_passenger" depart="43.69" departLane="best" departSpeed="max" from="984589839" to="-136797064#12"/>
    <trip id="veh43" type="veh_passenger" depart="44.73" departLane="best" from="1107978683#1" to="-1107968592#1"/>
    <trip id="veh44" type="veh_passenger" depart="45.77" departLane="best" from="-136362670#0" to="24474442#7"/>
    <trip id="veh45" type="veh_passenger" depart="46.81" departLane="best" from="437436729#0" to="1107978691"/>
    <trip id="veh46" type="veh_passenger" depart="47.85" departLane="best" departSpeed="max" from="984589839" to="136957135#2"/>
    <trip id="veh47" type="veh_passenger" depart="48.90" departLane="best" from="74450559#1-AddedOffRampEdge" to="50773677#7"/>
    <trip id="veh48" type="veh_passenger" depart="49.94" departLane="best" from="-1106846547#1" to="39687227#3"/>
    <trip id="veh49" type="veh_passenger" depart="50.98" departLane="best" from="27496946#2" to="166724073#0"/>
    <trip id="veh50" type="veh_passenger" depart="52.02" departLane="best" from="553665495#1" to="-27496026#0"/>
    <trip id="veh52" type="veh_passenger" depart="54.10" departLane="best" from="1131988411#3" to="74424239"/>
    <trip id="veh53" type="veh_passenger" depart="55.14" departLane="best" from="50773684#1" to="-553665496"/>
    <trip id="veh54" type="veh_passenger" depart="56.18" departLane="best" from="136752711#5" to="-27395791"/>
    <trip id="veh55" type="veh_passenger" depart="57.22" departLane="best" departSpeed="max" from="72352243#0" to="50773684#2"/>
    <trip id="veh56" type="veh_passenger" depart="58.26" departLane="best" departSpeed="max" from="-966921114" to="27396072"/>
    <trip id="veh57" type="veh_passenger" depart="59.30" departLane="best" departSpeed="max" from="226663355#0" to="-226472185#2"/>
    <trip id="veh58" type="veh_passenger" depart="60.34" departLane="best" from="423393380#0-AddedOffRampEdge" to="176494094"/>
    <trip id="veh59" type="veh_passenger" depart="61.38" departLane="best" from="428147190#8-AddedOnRampEdge" to="-144434636#0"/>
    <trip id="veh60" type="veh_passenger" depart="62.42" departLane="best" from="-1005047642#1" to="1101731478#1"/>
    <trip id="veh61" type="veh_passenger" depart="63.46" departLane="best" from="-1107965452#1" to="74023922#2"/>
    <trip id="veh65" type="veh_passenger" depart="67.62" departLane="best" departSpeed="max" from="-1107978676" to="136758548"/>
    <trip id="veh66" type="veh_passenger" depart="68.66" departLane="best" from="-1107968609#2" to="433779881#1"/>
    <trip id="veh67" type="veh_passenger" depart="69.70" departLane="best" departSpeed="max" from="428147190#0" to="-136954573#0"/>
    <trip id="veh68" type="veh_passenger" depart="70.74" departLane="best" from="136362661#1" to="176716825#2"/>
    <trip id="veh69" type="veh_passenger" depart="71.78" departLane="best" departSpeed="max" from="1107978673" to="39676332#2"/>
    <trip id="veh70" type="veh_passenger" depart="72.82" departLane="best" from="136957130#0" to="39687376#0"/>
    <trip id="veh72" type="veh_passenger" depart="74.90" departLane="best" departSpeed="max" from="966921105" to="30839385#1"/>
    <trip id="veh73" type="veh_passenger" depart="75.94" departLane="best" from="24474366#5" to="136954583"/>
    <trip id="veh74" type="veh_passenger" depart="76.98" departLane="best" from="-136797064#3" to="-39687496#1"/>
    <trip id="veh75" type="veh_passenger" depart="78.02" departLane="best" departSpeed="max" from="1083933252" to="238492234#3"/>
    <trip id="veh76" type="veh_passenger" depart="79.06" departLane="best" from="-43907870" to="-39687304#2"/>
    <trip id="veh77" type="veh_passenger" depart="80.11" departLane="best" departSpeed="max" from="-1107968610" to="27203745#0"/>
    <trip id="veh78" type="veh_passenger" depart="81.15" departLane="best" departSpeed="max" from="-436404912#1" to="71461988#4-AddedOffRampEdge"/>
    <trip id="veh80" type="veh_passenger" depart="83.23" departLane="best" from="-47220134#2" to="39150977#0"/>
    <trip id="veh81" type="veh_passenger" depart="84.27" departLane="best" from="39687304#1" to="-136957135#1"/>
    <trip id="veh82" type="veh_passenger" depart="85.31" departLane="best" from="74424206#1" to="177047469"/>
    <trip id="veh83" type="veh_passenger" depart="86.35" departLane="best" from="136232031#0" to="71461988#0"/>
    <trip id="veh84" type="veh_passenger" depart="87.39" departLane="best" from="43925759#7" to="-27496946#0"/>
    <trip id="veh85" type="veh_passenger" depart="88.43" departLane="best" departSpeed="max" from="-1107978690" to="1123309046"/>
    <trip id="veh86" type="veh_passenger" depart="89.47" departLane="best" departSpeed="max" from="1107978673" to="136362667#0"/>
    <trip id="veh88" type="veh_passenger" depart="91.55" departLane="best" from="905260343#3" to="1107978684#1"/>
    <trip id="veh89" type="veh_passenger" depart="92.59" departLane="best" from="-1107978655#0" to="1107965450#5"/>
    <trip id="veh90" type="veh_passenger" depart="93.63" departLane="best" from="-39410238#5" to="1131988411#5"/>
    <trip id="veh91" type="veh_passenger" depart="94.67" departLane="best" departSpeed="max" from="1107978673" to="729783868#3"/>
    <trip id="veh94" type="veh_passenger" depart="97.79" departLane="best" from="144434639#0" to="-1107968595#0"/>
    <trip id="veh96" type="veh_passenger" depart="99.87" departLane="best" departSpeed="max" from="74450559#0" to="74023918-AddedOnRampEdge"/>
    <trip id="veh98" type="veh_passenger" depart="101.95" departLane="best" from="136752708" to="-39687155#1"/>
    <trip id="veh99" type="veh_passenger" depart="102.99" departLane="best" from="1107968591#1" to="8881008"/>
    <trip id="veh100" type="veh_passenger" depart="104.03" departLane="best" from="-553665494#3" to="71461988#1"/>
    <trip id="veh101" type="veh_passenger" depart="105.07" departLane="best" from="1131988411#3-AddedOffRampEdge" to="1107978693"/>
    <trip id="veh102" type="veh_passenger" depart="106.11" departLane="best" from="74424241#0" to="966921114"/>
    <trip id="veh103" type="veh_passenger" depart="107.15" departLane="best" from="176494094" to="39687206#1"/>
    <trip id="veh104" type="veh_passenger" depart="108.19" departLane="best" from="240000349#0" to="1022305923"/>
    <trip id="veh105" type="veh_passenger" depart="109.23" departLane="best" departSpeed="max" from="74450559#0" to="225926025#3"/>
    <trip id="veh106" type="veh_passenger" depart="110.27" departLane="best" from="136957131#0" to="428147190#8-AddedOnRampEdge"/>
    <trip id="veh107" type="veh_passenger" depart="111.31" departLane="best" from="-1107968595#2" to="-226472187#1"/>
    <trip id="veh108" type="veh_passenger" depart="112.36" departLane="best" from="136796363#0" to="50773677#2"/>
    <trip id="veh109" type="veh_passenger" depart="113.40" departLane="best" from="24466106#3" to="74427164#2"/>
    <trip id="veh110" type="veh_passenger" depart="114.44" departLane="best" from="-1107978666#1" to="-27396073#0"/>
    <trip id="veh111" type="veh_passenger" depart="115.48" departLane="best" departSpeed="max" from="177053062" to="39150988#1"/>
    <trip id="veh112" type="veh_passenger" depart="116.52" departLane="best" from="-47214201#2" to="-136797046"/>
    <trip id="veh114" type="veh_passenger" depart="118.60" departLane="best" departSpeed="max" from="177053062" to="24474372#3"/>
    <trip id="veh115" type="veh_passenger" depart="119.64" departLane="best" from="1107978670" to="-226472187#0"/>
    <trip id="veh116" type="veh_passenger" depart="120.68" departLane="best" departSpeed="max" from="136797064#0" to="74424206#2"/>
    <trip id="veh117" type="veh_passenger" depart="121.72" departLane="best" departSpeed="max" from="-39676138#3" to="-39687155#1"/>
    <trip id="veh119" type="veh_passenger" depart="123.80" departLane="best" departSpeed="max" from="27396070#0" to="1022305926-AddedOffRampEdge"/>
    <trip id="veh120" type="veh_passenger" depart="124.84" departLane="best" from="1022305934-AddedOnRampEdge" to="428147194#1"/>
    <trip id="veh121" type="veh_passenger" depart="125.88" departLane="best" from="-1107978655#2" to="136017315"/>
    <trip id="veh122" type="veh_passenger" depart="126.92" departLane="best" from="987438278" to="984589840#0"/>
    <trip id="veh123" type="veh_passenger" depart="127.96" departLane="best" from="-1107978656#0" to="-39687155#0"/>
    <trip id="veh124" type="veh_passenger" depart="129.00" departLane="best" from="-553665494#3" to="74424206#1"/>
    <trip id="veh125" type="veh_passenger" depart="130.04" departLane="best" from="1107965462#0" to="238492234#2"/>
    <trip id="veh127" type="veh_passenger" depart="132.12" departLane="best" departSpeed="max" from="226663355#0" to="8881008"/>
    <trip id="veh128" type="veh_passenger" depart="133.16" departLane="best" from="24474424#5" to="-1101731479#4"/>
    <trip id="veh129" type="veh_passenger" depart="134.20" departLane="best" from="436404909#0" to="1022305926-AddedOffRampEdge"/>
    <trip id="veh130" type="veh_passenger" depart="135.24" departLane="best" from="27203745#0" to="74424207#1"/>
    <trip id="veh131" type="veh_passenger" depart="136.28" departLane="best" from="-166724070#0" to="-136796737#0"/>
    <trip id="veh132" type="veh_passenger" depart="137.32" departLane="best" from="-136232031#0" to="136797055#0"/>
    <trip id="veh133" type="veh_passenger" depart="138.36" departLane="best" departSpeed="max" from="-68742081#1" to="24474354#1"/>
    <trip id="veh134" type="veh_passenger" depart="139.40" departLane="best" from="39410238#5" to="-39609934#0"/>
    <trip id="veh136" type="veh_passenger" depart="141.48" departLane="best" departSpeed="max" from="136752711#0" to="71461988#4-AddedOffRampEdge"/>
    <trip id="veh137" type="veh_passenger" depart="142.52" departLane="best" from="1131988411#3-AddedOffRampEdge" to="-1107978681"/>
    <trip id="veh138" type="veh_passenger" depart="143.56" departLane="best" departSpeed="max" from="1107978673" to="-72352242#1"/>
    <trip id="veh139" type="veh_passenger" depart="144.61" departLane="best" departSpeed="max" from="-1005047642#7" to="43925447#2"/>
    <trip id="veh141" type="veh_passenger" depart="146.69" departLane="best" from="39687207#0" to="176802631"/>
    <trip id="veh142" type="veh_passenger" depart="147.73" departLane="best" from="1107978660#0" to="554299960"/>
    <trip id="veh143" type="veh_passenger" depart="148.77" departLane="best" from="71461988#4" to="176637362#1"/>
    <trip id="veh145" type="veh_passenger" depart="150.85" departLane="best" from="-226472187#0" to="-136798937#0"/>
    <trip id="veh146" type="veh_passenger" depart="151.89" departLane="best" from="1022305927#1" to="71365287#2"/>
    <trip id="veh147" type="veh_passenger" depart="152.93" departLane="best" from="43925759#0" to="50773677#7"/>
    <trip id="veh148" type="veh_passenger" depart="153.97" departLane="best" from="-68742098#2" to="-39676224"/>
    <trip id="veh151" type="veh_passenger" depart="157.09" departLane="best" departSpeed="max" from="1107978659" to="24474424#2"/>
    <trip id="veh152" type="veh_passenger" depart="158.13" departLane="best" from="-239999357" to="-74032712#1"/>
    <trip id="veh154" type="veh_passenger" depart="160.21" departLane="best" from="43925952#1" to="553665499#1"/>
    <trip id="veh156" type="veh_passenger" depart="162.29" departLane="best" from="1076772165#3" to="74424204#0"/>
    <trip id="veh157" type="veh_passenger" depart="163.33" departLane="best" from="43925759#3" to="50773680"/>
    <trip id="veh158" type="veh_passenger" depart="164.37" departLane="best" from="43925952#1" to="68742006"/>
    <trip id="veh159" type="veh_passenger" depart="165.41" departLane="best" from="436404908" to="-136232031#2"/>
    <trip id="veh161" type="veh_passenger" depart="167.49" departLane="best" departSpeed="max" from="-39791065" to="47214201#0"/>
    <trip id="veh162" type="veh_passenger" depart="168.53" departLane="best" from="1131988411#6" to="1022305928#4"/>
    <trip id="veh163" type="veh_passenger" depart="169.57" departLane="best" from="43925759#0" to="-428147195#5"/>
    <trip id="veh164" type="veh_passenger" depart="170.61" departLane="best" departSpeed="max" from="-1107965455" to="297471868"/>
    <trip id="veh165" type="veh_passenger" depart="171.65" departLane="best" from="10487419#0-AddedOffRampEdge" to="50773682"/>
    <trip id="veh166" type="veh_passenger" depart="172.69" departLane="best" departSpeed="max" from="74450559#0" to="-729783871"/>
    <trip id="veh167" type="veh_passenger" depart="173.73" departLane="best" departSpeed="max" from="24474359#0" to="1107978664#1"/>
    <trip id="veh168" type="veh_passenger" depart="174.77" departLane="best" from="882623316" to="166724070#0"/>
    <trip id="veh170" type="veh_passenger" depart="176.86" departLane="best" from="74450559#1-AddedOffRampEdge" to="-27395791"/>
    <trip id="veh171" type="veh_passenger" depart="177.90" departLane="best" from="136017339#1" to="-68740681"/>
    <trip id="veh173" type="veh_passenger" depart="179.98" departLane="best" from="39676224" to="1057657680#1"/>
    <trip id="veh174" type="veh_passenger" depart="181.02" departLane="best" from="-226472186#0" to="-136797064#5"/>
    <trip id="veh175" type="veh_passenger" depart="182.06" departLane="best" from="1107968594#1" to="225926025#0"/>
    <trip id="veh177" type="veh_passenger" depart="184.14" departLane="best" departSpeed="max" from="-1005047642#7" to="74023918-AddedOnRampEdge"/>
    <trip id="veh178" type="veh_passenger" depart="185.18" departLane="best" from="136957129" to="39687207#1"/>
    <trip id="veh179" type="veh_passenger" depart="186.22" departLane="best" from="-39687227#1" to="39150977#1"/>
    <trip id="veh181" type="veh_passenger" depart="188.30" departLane="best" from="27203745#2" to="1106846544#0"/>
    <trip id="veh182" type="veh_passenger" depart="189.34" departLane="best" departSpeed="max" from="1022305933" to="50177930#1"/>
    <trip id="veh183" type="veh_passenger" depart="190.38" departLane="best" departSpeed="max" from="39609896#0" to="1022305926-AddedOffRampEdge"/>
    <trip id="veh184" type="veh_passenger" depart="191.42" departLane="best" from="1022305928#1" to="1107978676"/>
    <trip id="veh185" type="veh_passenger" depart="192.46" departLane="best" departSpeed="max" from="1107968612" to="1022305923"/>
    <trip id="veh186" type="veh_passenger" depart="193.50" departLane="best" from="-136957135#0" to="1107978691"/>
    <trip id="veh187" type="veh_passenger" depart="194.54" departLane="best" from="74424207#0" to="39151519#0"/>
    <trip id="veh188" type="veh_passenger" depart="195.58" departLane="best" from="43925759#6" to="24474366#2"/>
    <trip id="veh189" type="veh_passenger" depart="196.62" departLane="best" departSpeed="max" from="-984589840#1" to="176637365#4"/>
    <trip id="veh190" type="veh_passenger" depart="197.66" departLane="best" from="-1005047642#1" to="-984589839"/>
    <trip id="veh191" type="veh_passenger" depart="198.70" departLane="best" from="-1107978682#7" to="226472185#0"/>
    <trip id="veh192" type="veh_passenger" depart="199.74" departLane="best" from="24474427#0" to="136232034#2"/>
    <trip id="veh193" type="veh_passenger" depart="200.78" departLane="best" from="1123309047" to="-39687155#1"/>
    <trip id="veh194" type="veh_passenger" depart="201.82" departLane="best" from="136232031#1" to="71461988#1"/>
    <trip id="veh195" type="veh_passenger" depart="202.86" departLane="best" from="43925759#0" to="-24474427#3"/>
    <trip id="veh196" type="veh_passenger" depart="203.90" departLane="best" from="1107978674" to="-136798937#0"/>
    <trip id="veh197" type="veh_passenger" depart="204.94" departLane="best" from="24474353#0" to="1106846549#2"/>
    <trip id="veh198" type="veh_passenger" depart="205.98" departLane="best" from="445334263" to="428147194#1"/>
    <trip id="veh199" type="veh_passenger" depart="207.02" departLane="best" departSpeed="max" from="27396070#0" to="-39687496#1"/>
    <trip id="veh200" type="veh_passenger" depart="208.06" departLane="best" from="-39609979#2" to="-1107965453#0"/>
    <trip id="veh203" type="veh_passenger" depart="211.19" departLane="best" from="-1107978665#2" to="27042093#1"/>
    <trip id="veh204" type="veh_passenger" depart="212.23" departLane="best" departSpeed="max" from="-39609934#2" to="39609962#3"/>
    <trip id="veh206" type="veh_passenger" depart="214.31" departLane="best" from="24474427#3" to="-1083933252"/>
    <trip id="veh207" type="veh_passenger" depart="215.35" departLane="best" departSpeed="max" from="39687339" to="43907870"/>
    <trip id="veh208" type="veh_passenger" depart="216.39" departLane="best" from="136017326#2" to="1116719084-AddedOffRampEdge"/>
    <trip id="veh209" type="veh_passenger" depart="217.43" departLane="best" from="27496026#1" to="74424243"/>
    <trip id="veh210" type="veh_passenger" depart="218.47" departLane="best" from="136797050#1" to="-1107968595#0"/>
    <trip id="veh212" type="veh_passenger" depart="220.55" departLane="best" from="1131988411#3-AddedOffRampEdge" to="47052569#1-AddedOnRampEdge"/>
    <trip id="veh213" type="veh_passenger" depart="221.59" departLane="best" departSpeed="max" from="27395791" to="8881008"/>
    <trip id="veh214" type="veh_passenger" depart="222.63" departLane="best" departSpeed="max" from="177053062" to="74424227#0"/>
    <trip id="veh215" type="veh_passenger" depart="223.67" departLane="best" from="68741995#2" to="24474360#3"/>
    <trip id="veh216" type="veh_passenger" depart="224.71" departLane="best" departSpeed="max" from="39609896#0" to="136797050#1"/>
    <trip id="veh217" type="veh_passenger" depart="225.75" departLane="best" from="47097486" to="176637365#4"/>
    <trip id="veh218" type="veh_passenger" depart="226.79" departLane="best" from="68742092#5" to="428147190#5"/>
    <trip id="veh219" type="veh_passenger" depart="227.83" departLane="best" from="136232034#2" to="553665492#5"/>
    <trip id="veh221" type="veh_passenger" depart="229.91" departLane="best" departSpeed="max" from="428147190#0" to="136957129"/>
    <trip id="veh222" type="veh_passenger" depart="230.95" departLane="best" from="239999350#4" to="71365287#0"/>
    <trip id="veh223" type="veh_passenger" depart="231.99" departLane="best" from="-1107978664#1" to="-905260351"/>
    <trip id="veh224" type="veh_passenger" depart="233.03" departLane="best" from="-68742081#0" to="1077974678#2"/>
    <trip id="veh225" type="veh_passenger" depart="234.07" departLane="best" from="136957130#1" to="-154401634"/>
    <trip id="veh226" type="veh_passenger" depart="235.11" departLane="best" from="441927390#1" to="39609951#1"/>
    <trip id="veh227" type="veh_passenger" depart="236.15" departLane="best" from="39150988#0-AddedOffRampEdge" to="-1107968611"/>
    <trip id="veh228" type="veh_passenger" depart="237.19" departLane="best" departSpeed="max" from="1107978659" to="176494103#1"/>
    <trip id="veh229" type="veh_passenger" depart="238.23" departLane="best" from="-1107978667" to="-39609979#3"/>
    <trip id="veh230" type="veh_passenger" depart="239.27" departLane="best" departSpeed="max" from="1107978672" to="71461988#4-AddedOffRampEdge"/>
    <trip id="veh231" type="veh_passenger" depart="240.32" departLane="best" departSpeed="max" from="176876831" to="39609962#3"/>
    <trip id="veh233" type="veh_passenger" depart="242.40" departLane="best" from="-1107968591#6" to="-1101731479#0"/>
    <trip id="veh234" type="veh_passenger" depart="243.44" departLane="best" from="1106846548#1" to="428147194#1"/>
    <trip id="veh236" type="veh_passenger" depart="245.52" departLane="best" from="1107978670" to="50773677#2"/>
    <trip id="veh237" type="veh_passenger" depart="246.56" departLane="best" from="136957135#2" to="24474354#0-AddedOffRampEdge"/>
    <trip id="veh238" type="veh_passenger" depart="247.60" departLane="best" from="-39687496#0" to="-39687304#0"/>
    <trip id="veh240" type="veh_passenger" depart="249.68" departLane="best" from="-1107978656#0" to="-24474372#1"/>
    <trip id="veh241" type="veh_passenger" depart="250.72" departLane="best" from="1131988467" to="-136798937#1"/>
    <trip id="veh242" type="veh_passenger" depart="251.76" departLane="best" departSpeed="max" from="239999347#0" to="-1107965460#0"/>
    <trip id="veh243" type="veh_passenger" depart="252.80" departLane="best" from="1107968605" to="177046320"/>
    <trip id="veh244" type="veh_passenger" depart="253.84" departLane="best" from="-1107965459#1" to="27496047"/>
    <trip id="veh245" type="veh_passenger" depart="254.88" departLane="best" from="-166724073#2" to="74446200"/>
    <trip id="veh246" type="veh_passenger" depart="255.92" departLane="best" departSpeed="max" from="-1107965480" to="-1107968595#2"/>
    <trip id="veh247" type="veh_passenger" depart="256.96" departLane="best" from="-39687227#4" to="1101731479#4"/>
    <trip id="veh248" type="veh_passenger" depart="258.00" departLane="best" departSpeed="max" from="423393380#0" to="1107968595#2"/>
    <trip id="veh251" type="veh_passenger" depart="261.12" departLane="best" from="-1107965452#1" to="176494094"/>
    <trip id="veh252" type="veh_passenger" depart="262.16" departLane="best" from="44064462#2" to="1107965459#4"/>
    <trip id="veh253" type="veh_passenger" depart="263.20" departLane="best" from="24474366#5" to="43925759#5"/>
    <trip id="veh254" type="veh_passenger" depart="264.24" departLane="best" from="24474372#3" to="428147194#1-AddedOnRampEdge"/>
    <trip id="veh255" type="veh_passenger" depart="265.28" departLane="best" from="74424225" to="-39410238#4"/>
    <trip id="veh256" type="veh_passenger" depart="266.32" departLane="best" departSpeed="max" from="-1107965453#1" to="226472185#1"/>
    <trip id="veh257" type="veh_passenger" depart="267.36" departLane="best" from="-136954573#2" to="39150977#0"/>
    <trip id="veh258" type="veh_passenger" depart="268.40" departLane="best" from="176802631" to="-39687255#0"/>
    <trip id="veh260" type="veh_passenger" depart="270.48" departLane="best" from="27042081#1" to="24474354#2"/>
    <trip id="veh261" type="veh_passenger" depart="271.52" departLane="best" from="-39687304#4" to="-136796732#5"/>
    <trip id="veh263" type="veh_passenger" depart="273.61" departLane="best" from="136232034#0" to="-1107965459#1"/>
    <trip id="veh264" type="veh_passenger" depart="274.65" departLane="best" from="1022305928#4" to="39151519#0"/>
    <trip id="veh266" type="veh_passenger" depart="276.73" departLane="best" from="39215747#0" to="-1107978664#0"/>
    <trip id="veh267" type="veh_passenger" depart="277.77" departLane="best" from="39150363#0" to="24474442#6"/>
    <trip id="veh268" type="veh_passenger" depart="278.81" departLane="best" from="-1116719087#2" to="43925759#0"/>
    <trip id="veh270" type="veh_passenger" depart="280.89" departLane="best" from="-136797064#3" to="8881008"/>
    <trip id="veh271" type="veh_passenger" depart="281.93" departLane="best" from="428147195#4" to="1107965456"/>
    <trip id="veh272" type="veh_passenger" depart="282.97" departLane="best" from="1107978682#2" to="1107965477#1"/>
    <trip id="veh273" type="veh_passenger" depart="284.01" departLane="best" from="136796731#2" to="1107965452#2"/>
    <trip id="veh275" type="veh_passenger" depart="286.09" departLane="best" from="136017326#0" to="74427164#2"/>
    <trip id="veh279" type="veh_passenger" depart="290.25" departLane="best" departSpeed="max" from="-591730021#2" to="47097486"/>
    <trip id="veh281" type="veh_passenger" depart="292.33" departLane="best" from="1107978687" to="39687376#1"/>
    <trip id="veh282" type="veh_passenger" depart="293.37" departLane="best" departSpeed="max" from="-591730021#2" to="50177930#1-AddedOnRampEdge"/>